644041
  -OEChem-06291816323D

  8  7  0     0  0  0  0  0  0999 V2000
    0.7378    0.0000    0.0000 N   0  3  0  0  0  0  0  0  0  0  0  0
   -0.7378    0.0000    0.0000 C   0  0  0  0  0  0  0  0  0  0  0  0
    1.1125   -0.3153   -0.9044 H   0  0  0  0  0  0  0  0  0  0  0  0
    1.1126   -0.6256    0.7252 H   0  0  0  0  0  0  0  0  0  0  0  0
    1.1125    0.9409    0.1791 H   0  0  0  0  0  0  0  0  0  0  0  0
   -1.0718   -1.0210   -0.1943 H   0  0  0  0  0  0  0  0  0  0  0  0
   -1.0717    0.3422    0.9814 H   0  0  0  0  0  0  0  0  0  0  0  0
   -1.0717    0.6788   -0.7870 H   0  0  0  0  0  0  0  0  0  0  0  0
  1  2  1  0  0  0  0
  1  3  1  0  0  0  0
  1  4  1  0  0  0  0
  1  5  1  0  0  0  0
  2  6  1  0  0  0  0
  2  7  1  0  0  0  0
  2  8  1  0  0  0  0
M  CHG  1   1   1
M  END
> <PUBCHEM_COMPOUND_CID>
644041

> <PUBCHEM_CONFORMER_RMSD>
0.4

> <PUBCHEM_CONFORMER_DIVERSEORDER>
1

> <PUBCHEM_MMFF94_PARTIAL_CHARGES>
5
1 -0.85
2 0.5
3 0.45
4 0.45
5 0.45

> <PUBCHEM_EFFECTIVE_ROTOR_COUNT>
0

> <PUBCHEM_PHARMACOPHORE_FEATURES>
2
1 1 cation
1 1 donor

> <PUBCHEM_HEAVY_ATOM_COUNT>
2

> <PUBCHEM_ATOM_DEF_STEREO_COUNT>
0

> <PUBCHEM_ATOM_UDEF_STEREO_COUNT>
0

> <PUBCHEM_BOND_DEF_STEREO_COUNT>
0

> <PUBCHEM_BOND_UDEF_STEREO_COUNT>
0

> <PUBCHEM_ISOTOPIC_ATOM_COUNT>
0

> <PUBCHEM_COMPONENT_COUNT>
1

> <PUBCHEM_CACTVS_TAUTO_COUNT>
1

> <PUBCHEM_CONFORMER_ID>
0009D3C900000001

> <PUBCHEM_MMFF94_ENERGY>
0.371

> <PUBCHEM_FEATURE_SELFOVERLAP>
10.148

> <PUBCHEM_SHAPE_FINGERPRINT>
21015797 1 18122344854608827037
260 1 18410856563987504391

> <PUBCHEM_SHAPE_MULTIPOLES>
36.18
1.11
0.57
0.57
0
0
0
0
0
0.04
0
0.04
0
0

> <PUBCHEM_SHAPE_SELFOVERLAP>
47.497

> <PUBCHEM_SHAPE_VOLUME>
29.7

> <PUBCHEM_COORDINATE_TYPE>
2
5
10

$$$$
